
                    3D
 Structure written by MMmdl.
 49 52  0  0  1  0            999 V2000
    5.1758   -2.3037    0.6797 C   0  0  0  0  0  0
    3.7845   -2.2566    0.4049 O   0  0  0  0  0  0
    3.4265   -1.2329   -0.4655 C   0  0  2  0  0  0
    3.1307    0.0739    0.3007 C   0  0  0  0  0  0
    1.7622   -0.0962    0.9862 C   0  0  1  0  0  0
    0.9091    1.0707    0.7858 N   0  0  0  0  0  0
   -0.1517    0.7628   -0.1447 C   0  0  2  0  0  0
    0.2622    1.0174   -1.4654 O   0  0  0  0  0  0
    0.8214    2.2923   -1.7939 C   0  0  0  0  0  0
   -1.5070    1.5367    0.0747 C   0  0  2  0  0  0
   -1.7086    2.1564    1.4569 C   0  0  0  0  0  0
   -3.1953    2.5209    1.4094 C   0  0  0  0  0  0
   -3.8519    1.5067    0.5441 N   0  3  1  0  0  0
   -4.8637    2.0699   -0.3762 C   0  0  0  0  0  0
   -2.7928    0.7091   -0.1270 C   0  0  2  0  0  0
   -2.7720   -0.7121    0.4880 C   0  0  0  0  0  0
   -1.3792   -1.1655    0.9289 C   0  0  0  0  0  0
   -0.3262   -0.7713   -0.1127 C   0  0  2  0  0  0
    1.0734   -1.2554    0.2745 C   0  0  1  0  0  0
    1.9294   -1.5338   -0.8869 N   0  3  0  0  0  0
    5.3832   -3.1248    1.3659 H   0  2  0  0  0  0
    5.7514   -2.4763   -0.2306 H   0  5  0  0  0  0
    5.5283   -1.3833    1.1457 H   0  0  0  0  0  0
    4.0873   -1.1334   -1.3286 H   0  0  0  0  0  0
    3.9261    0.2994    1.0108 H   0  0  0  0  0  0
    3.1146    0.8810   -0.4312 H   0  0  0  0  0  0
    1.8723   -0.3011    2.0517 H   0  0  0  0  0  0
    1.4412    1.8865    0.5180 H   0  0  0  0  0  0
    0.1457    3.1256   -1.6110 H   0  0  0  0  0  0
    1.7492    2.4905   -1.2593 H   0  0  0  0  0  0
    1.0599    2.3034   -2.8572 H   0  0  0  0  0  0
   -1.5590    2.3625   -0.6321 H   0  0  0  0  0  0
   -1.5210    1.4379    2.2542 H   0  0  0  0  0  0
   -1.0732    3.0258    1.6295 H   0  0  0  0  0  0
   -3.6460    2.5448    2.4019 H   0  0  0  0  0  0
   -3.3072    3.5154    0.9737 H   0  0  0  0  0  0
   -5.3606    1.2734   -0.9312 H   0  0  0  0  0  0
   -5.6257    2.6155    0.1815 H   0  0  0  0  0  0
   -4.4062    2.7535   -1.0928 H   0  0  0  0  0  0
   -2.9870    0.6173   -1.1974 H   0  0  0  0  0  0
   -3.4453   -0.7899    1.3431 H   0  0  0  0  0  0
   -3.1604   -1.4142   -0.2511 H   0  0  0  0  0  0
   -1.1271   -0.7469    1.9032 H   0  0  0  0  0  0
   -1.3865   -2.2476    1.0647 H   0  0  0  0  0  0
   -0.6320   -1.1470   -1.0915 H   0  0  0  0  0  0
    1.0494   -2.1458    0.9047 H   0  0  0  0  0  0
    1.6572   -0.8990   -1.6246 H   0  0  0  0  0  0
   -4.3405    0.8696    1.1571 H   0  0  0  0  0  0
    1.8159   -2.4865   -1.2020 H   0  0  0  0  0  0
  1  2  1  0  0  0
  1 21  1  0  0  0
  1 22  1  0  0  0
  1 23  1  0  0  0
  2  3  1  0  0  0
  3 20  1  0  0  0
  3  4  1  0  0  0
  3 24  1  0  0  0
  4  5  1  0  0  0
  4 25  1  0  0  0
  4 26  1  0  0  0
  5 19  1  0  0  0
  5  6  1  0  0  0
  5 27  1  0  0  0
  6  7  1  0  0  0
  6 28  1  0  0  0
  7 18  1  0  0  0
  7  8  1  0  0  0
  7 10  1  0  0  0
  8  9  1  0  0  0
  9 29  1  0  0  0
  9 30  1  0  0  0
  9 31  1  0  0  0
 10 15  1  0  0  0
 10 11  1  0  0  0
 10 32  1  0  0  0
 11 12  1  0  0  0
 11 33  1  0  0  0
 11 34  1  0  0  0
 12 13  1  0  0  0
 12 35  1  0  0  0
 12 36  1  0  0  0
 13 14  1  0  0  0
 13 15  1  0  0  0
 13 48  1  0  0  0
 14 37  1  0  0  0
 14 38  1  0  0  0
 14 39  1  0  0  0
 15 16  1  0  0  0
 15 40  1  0  0  0
 16 17  1  0  0  0
 16 41  1  0  0  0
 16 42  1  0  0  0
 17 18  1  0  0  0
 17 43  1  0  0  0
 17 44  1  0  0  0
 18 19  1  0  0  0
 18 45  1  0  0  0
 19 20  1  0  0  0
 19 46  1  0  0  0
 20 47  1  0  0  0
 20 49  1  0  0  0
M  CHG  2  13   1  20   1   21   0 
M  CHG  1  22   0 
M  END
> <r_lp_tautomer_probability>
1

> <r_epik_Ionization_Penalty>
  0.0138

> <r_epik_Ionization_Penalty_Charging>
  0.0138

> <r_epik_Ionization_Penalty_Neutral>
  0.0000

> <r_epik_State_Penalty>
  0.0131

> <i_epik_Tot_Q>
2

> <s_epik_Chemistry_Notes>
This compound contains an acetal/aminal-like group ( X-CH(R)-Y where X, Y are N, S, or O) that may be acid/base labile, releasing an aldehyde.

> <i_lp_ring_sampling_problem>
1

> <r_mmod_Potential_Energy-OPLS-2005>
463.063598632812

> <b_mmod_Minimization_Converged-OPLS-2005>
1

> <r_mmod_RMS_Derivative-OPLS-2005>
0.0446506626904011

> <i_mmod_Times_Found-OPLS-2005>
1

> <r_mmod_Relative_Potential_Energy-OPLS-2005>
0

> <b_mmod_Chiralities_Consistent-OPLS-2005>
1

> <i_mmod_Conformation-OPLS-2005>
1

> <i_mmod_Serial_Number-OPLS-2005>
1

$$$$
